Version 4
SHEET 1 880 680
WIRE 256 32 256 16
WIRE 256 32 160 32
WIRE 352 32 256 32
WIRE 112 96 0 96
WIRE 160 96 160 32
WIRE 352 96 352 32
WIRE 304 128 192 128
WIRE 528 128 432 128
WIRE 112 160 0 160
FLAG 0 96 in1
IOPIN 0 96 In
FLAG 0 160 in2
IOPIN 0 160 In
FLAG 256 16 vdd
IOPIN 256 16 In
FLAG 528 128 out
IOPIN 528 128 Out
SYMBOL nand 128 128 R0
WINDOW 0 0 0 Left 2
SYMATTR InstName NAND
SYMBOL inverter 352 128 R0
WINDOW 0 0 0 Left 2
SYMATTR InstName NOT
