Version 4
SHEET 1 1484 680
WIRE 368 -32 208 -32
WIRE -32 16 -432 16
WIRE 208 112 208 -32
WIRE -64 144 -432 144
WIRE -32 144 -32 16
WIRE 192 144 -32 144
WIRE 304 144 224 144
WIRE -64 176 -64 144
WIRE 192 176 -64 176
WIRE 400 176 224 176
WIRE 192 208 -32 208
WIRE 496 208 224 208
WIRE -32 272 -32 208
WIRE -32 272 -432 272
WIRE 208 336 208 240
FLAG 368 48 0
FLAG 208 416 0
FLAG -432 224 0
FLAG -432 352 0
FLAG -432 96 0
SYMBOL 74HCT\\74hct04 448 112 R0
SYMATTR InstName U2
SYMBOL 74HCT\\74hct04 352 80 R0
SYMATTR InstName U3
SYMBOL 74HCT\\74hct04 544 144 R0
SYMATTR InstName U4
SYMBOL voltage 208 320 R0
WINDOW 123 0 0 Left 2
WINDOW 39 0 0 Left 2
SYMATTR InstName x7
SYMATTR Value 0
SYMBOL 3StateSaver 208 176 R0
SYMATTR InstName X1
SYMBOL voltage -432 0 R0
WINDOW 123 0 0 Left 2
WINDOW 39 0 0 Left 2
SYMATTR InstName x3
SYMATTR Value PULSE(0 5 1m 10n 10n 2m 4m)
SYMBOL voltage -432 128 R0
WINDOW 123 0 0 Left 2
WINDOW 39 0 0 Left 2
SYMATTR InstName x4
SYMATTR Value PULSE(0 5 1m 10n 10n 2m 4m)
SYMBOL voltage -432 256 R0
WINDOW 123 0 0 Left 2
WINDOW 39 0 0 Left 2
SYMATTR InstName x5
SYMATTR Value PULSE(0 5 1m 10n 10n 2m 4m)
SYMBOL voltage 368 -48 R0
WINDOW 123 0 0 Left 2
WINDOW 39 0 0 Left 2
SYMATTR InstName x2
SYMATTR Value PULSE(0 5 0 10n 10n 1m 2m)
TEXT 792 -16 Left 2 !.lib 74hct.lib
TEXT 792 16 Left 2 !.lib dview.lib
TEXT 792 48 Left 2 !.tran 0 20m 0 1u
