Version 4
SHEET 1 2620 680
WIRE 224 0 128 0
WIRE 128 32 128 0
WIRE 224 80 224 0
WIRE 192 144 -96 144
WIRE 224 144 224 80
WIRE 528 144 256 144
WIRE -96 160 -96 144
WIRE 192 176 0 176
WIRE 0 192 0 176
WIRE 528 192 528 144
WIRE 528 192 480 192
WIRE 592 192 528 192
WIRE 192 208 96 208
WIRE 336 208 256 208
WIRE 592 208 592 192
WIRE 480 224 480 192
WIRE 96 240 96 208
WIRE 336 256 336 208
WIRE 336 256 288 256
WIRE 400 256 336 256
WIRE 400 272 400 256
WIRE 288 288 288 256
FLAG 0 272 0
FLAG 288 352 0
FLAG 400 352 0
FLAG 480 288 0
FLAG 592 288 0
FLAG 224 80 vdd
FLAG -96 240 0
FLAG 96 320 0
FLAG 128 112 0
SYMBOL voltage 0 176 R0
WINDOW 123 0 0 Left 2
WINDOW 39 0 0 Left 2
WINDOW 3 22 116 Invisible 2
SYMATTR Value PULSE(0 1 0.5n 10p 10p 1n 2n)
SYMATTR InstName in
SYMBOL res 384 256 R0
SYMATTR InstName R2
SYMATTR Value 100k
SYMBOL cap 272 288 R0
SYMATTR InstName C1
SYMATTR Value 1f
SYMBOL res 576 192 R0
SYMATTR InstName R3
SYMATTR Value 100k
SYMBOL cap 464 224 R0
SYMATTR InstName C2
SYMATTR Value 1f
SYMBOL voltage -96 144 R0
WINDOW 123 0 0 Left 2
WINDOW 39 0 0 Left 2
WINDOW 3 -275 -32 Invisible 2
SYMATTR Value PWL(0n 1 0.01n 1 1n 1 1.01n 0 2n 0 2.01n 0 3n 0 3.01n 0 4n 0 4.01n 0 5n 0 5.01n 1 6n 1 6.01n 0 7n 0 7.01n 1 8n 1 8.01n 1 9n 1 9.01n 0 10n 0 10.01n 0)
SYMATTR InstName in3
SYMBOL voltage 96 224 R0
WINDOW 123 0 0 Left 2
WINDOW 39 0 0 Left 2
WINDOW 3 -21 145 Invisible 2
SYMATTR Value PWL(0n 0 0.01n 0 1n 0 1.01n 0 2n 0 2.01n 0 3n 0 3.01n 1 4n 1 4.01n 0 5n 0 5.01n 0 6n 0 6.01n 0 7n 0 7.01n 1 8n 1 8.01n 1 9n 1 9.01n 0 10n 0)
SYMATTR InstName in1
SYMBOL voltage 128 16 R0
WINDOW 123 0 0 Left 2
WINDOW 39 0 0 Left 2
SYMATTR InstName V1
SYMATTR Value 1
SYMBOL jk-front-trigger 224 176 R0
SYMATTR InstName X1
TEXT 272 104 Left 2 !.include 90nm_bulk.txt
TEXT 272 72 Left 2 !.tran 0 10n 0 1p
