Version 4
SHEET 1 2620 680
WIRE 224 -144 96 -144
WIRE 96 -80 96 -144
WIRE 144 64 -112 64
WIRE -112 80 -112 64
WIRE 224 80 224 -144
WIRE 224 128 224 80
WIRE 144 144 144 64
WIRE 192 144 144 144
WIRE 688 160 256 160
WIRE 192 176 0 176
WIRE 0 192 0 176
WIRE 400 192 256 192
WIRE 192 208 80 208
WIRE 80 336 80 208
WIRE 400 400 400 192
WIRE 400 400 352 400
WIRE 464 400 400 400
WIRE 688 400 688 160
WIRE 688 400 640 400
WIRE 752 400 688 400
WIRE 464 416 464 400
WIRE 752 416 752 400
WIRE 352 432 352 400
WIRE 640 432 640 400
FLAG 0 272 0
FLAG 352 496 0
FLAG 464 496 0
FLAG 640 496 0
FLAG 752 496 0
FLAG 224 80 vdd
FLAG -112 160 0
FLAG 80 416 0
FLAG 96 0 0
SYMBOL jk 224 176 R0
SYMATTR InstName X1
SYMBOL voltage 0 176 R0
WINDOW 123 0 0 Left 2
WINDOW 39 0 0 Left 2
WINDOW 3 22 116 Left 2
SYMATTR InstName in
SYMATTR Value PULSE(1 1 0n 10p 10p 10n 20n)
SYMBOL res 448 400 R0
SYMATTR InstName R2
SYMATTR Value 100k
SYMBOL cap 336 432 R0
SYMATTR InstName C1
SYMATTR Value 1f
SYMBOL res 736 400 R0
SYMATTR InstName R3
SYMATTR Value 100k
SYMBOL cap 624 432 R0
SYMATTR InstName C2
SYMATTR Value 1f
SYMBOL voltage -112 64 R0
WINDOW 123 0 0 Left 2
WINDOW 39 0 0 Left 2
WINDOW 3 -275 -32 Invisible 2
SYMATTR InstName in3
SYMATTR Value PWL(0n 1 0.01n 1 1n 1 1.01n 0 2n 0 2.01n 0 3n 0 3.01n 0 4n 0 4.01n 0 5n 0 5.01n 1 6n 1 6.01n 0 7n 0 7.01n 1 8n 1 8.01n 1 9n 1 9.01n 0 10n 0 10.01n 0)
SYMBOL voltage 80 320 R0
WINDOW 123 0 0 Left 2
WINDOW 39 0 0 Left 2
WINDOW 3 -21 145 Invisible 2
SYMATTR InstName in1
SYMATTR Value PWL(0n 0 0.01n 0 1n 0 1.01n 0 2n 0 2.01n 0 3n 0 3.01n 1 4n 1 4.01n 0 5n 0 5.01n 0 6n 0 6.01n 0 7n 0 7.01n 1 8n 1 8.01n 1 9n 1 9.01n 0 10n 0)
SYMBOL voltage 96 -96 R0
WINDOW 123 0 0 Left 2
WINDOW 39 0 0 Left 2
SYMATTR InstName V1
SYMATTR Value 1
TEXT 584 -72 Left 2 !.include 90nm_bulk.txt
TEXT 584 -104 Left 2 !.tran 0 10n 0 1p
