Version 4
SHEET 1 952 680
WIRE 192 -256 -544 -256
WIRE 448 -224 304 -224
WIRE 448 -176 448 -224
WIRE 160 -144 -544 -144
WIRE 48 -32 -544 -32
WIRE 192 16 192 -256
WIRE 256 16 192 16
WIRE 304 32 304 -224
WIRE 160 48 160 -144
WIRE 256 48 160 48
WIRE 736 64 336 64
WIRE -112 80 -544 80
WIRE 48 80 48 -32
WIRE 256 80 48 80
WIRE -112 112 -112 80
WIRE 256 112 -112 112
WIRE 736 128 736 64
WIRE 736 128 688 128
WIRE 800 128 736 128
WIRE 688 160 688 128
WIRE 800 160 800 128
WIRE 288 192 288 112
WIRE 288 192 -48 192
WIRE -48 208 -48 192
WIRE 688 240 688 224
WIRE 320 256 320 96
WIRE 320 256 176 256
WIRE 176 320 176 256
FLAG 688 240 0
FLAG 800 240 0
FLAG -544 -64 0
FLAG -544 48 0
FLAG -544 160 0
FLAG -544 -176 0
FLAG 448 -96 0
FLAG -48 288 0
FLAG 176 400 0
SYMBOL voltage -544 -48 R0
WINDOW 123 0 0 Left 2
WINDOW 39 0 0 Left 2
SYMATTR InstName V2
SYMATTR Value PULSE(0 1 4n 10p 10p 4n 8n)
SYMBOL res 784 144 R0
SYMATTR InstName R1
SYMATTR Value 100K
SYMBOL cap 672 160 R0
SYMATTR InstName C1
SYMATTR Value 100f
SYMBOL voltage -544 -160 R0
WINDOW 123 0 0 Left 2
WINDOW 39 0 0 Left 2
SYMATTR InstName V3
SYMATTR Value PULSE(0 1 2n 10p 10p 2n 4n)
SYMBOL voltage -544 -272 R0
WINDOW 123 0 0 Left 2
WINDOW 39 0 0 Left 2
SYMATTR InstName V4
SYMATTR Value PULSE(0 1 1n 10p 10p 1n 2n)
SYMBOL voltage -544 64 R0
WINDOW 123 0 0 Left 2
WINDOW 39 0 0 Left 2
SYMATTR InstName V5
SYMATTR Value PULSE(0 1 8n 10p 10p 8n 16n)
SYMBOL voltage 448 -192 R0
WINDOW 123 0 0 Left 2
WINDOW 39 0 0 Left 2
SYMATTR InstName V1
SYMATTR Value 1
SYMBOL mux4 304 64 R0
SYMATTR InstName X1
SYMBOL voltage 176 304 R0
WINDOW 123 0 0 Left 2
WINDOW 39 0 0 Left 2
SYMATTR InstName V6
SYMATTR Value PULSE(0 1 16n 10p 10p 16n 32n)
SYMBOL voltage -48 192 R0
WINDOW 123 0 0 Left 2
WINDOW 39 0 0 Left 2
SYMATTR InstName V7
SYMATTR Value PULSE(0 1 32n 10p 10p 32n 64n)
TEXT 656 -120 Left 2 !.tran 0 64n 0 1p
TEXT 656 -88 Left 2 !.include 90nm_bulk.txt
