Version 4
SHEET 1 880 680
WIRE 304 -16 304 -80
WIRE 304 -16 160 -16
WIRE 432 -16 304 -16
WIRE 384 48 32 48
WIRE 240 64 48 64
WIRE 160 96 160 -16
WIRE 304 96 304 -16
WIRE 432 96 432 -16
WIRE 80 112 16 112
WIRE 112 112 80 112
WIRE 240 112 240 64
WIRE 256 112 240 112
WIRE 384 112 384 48
WIRE 160 144 160 112
WIRE 304 144 304 112
WIRE 432 144 432 112
WIRE 48 208 48 64
WIRE 48 208 16 208
WIRE 160 224 160 192
WIRE 224 224 160 224
WIRE 304 224 304 192
WIRE 304 224 224 224
WIRE 432 224 432 192
WIRE 432 224 304 224
WIRE 512 224 432 224
WIRE 224 256 224 224
WIRE 32 272 32 48
WIRE 32 272 0 272
WIRE 80 336 80 112
WIRE 176 336 80 336
WIRE 224 336 224 304
WIRE 48 432 48 208
WIRE 176 432 48 432
WIRE 224 432 224 400
WIRE 224 464 224 448
WIRE 32 544 32 272
WIRE 176 544 32 544
WIRE 224 544 224 512
WIRE 224 640 224 560
FLAG 16 112 in1
IOPIN 16 112 In
FLAG 16 208 in2
IOPIN 16 208 In
FLAG 512 224 out
IOPIN 512 224 Out
FLAG 304 -80 vdd
IOPIN 304 -80 In
FLAG 224 640 0
FLAG 0 272 in3
IOPIN 0 272 In
SYMBOL pmos4 112 192 M180
SYMATTR InstName M1
SYMATTR Value2 l=90n w=400n
SYMBOL pmos4 256 192 M180
SYMATTR InstName M2
SYMATTR Value2 l=90n w=400n
SYMBOL nmos4 176 256 R0
SYMATTR InstName M3
SYMATTR Value2 l=90n w=200n
SYMBOL nmos4 176 352 R0
SYMATTR InstName M4
SYMATTR Value2 l=90n w=200n
SYMBOL nmos4 176 464 R0
SYMATTR InstName M5
SYMATTR Value2 l=90n w=200n
SYMBOL pmos4 384 192 M180
SYMATTR InstName M6
SYMATTR Value2 l=90n w=400n
