Version 4
SHEET 1 880 680
WIRE 64 -240 -16 -240
WIRE -368 -128 -480 -128
WIRE -368 -80 -368 -128
WIRE -64 -80 -368 -80
WIRE -16 -80 -16 -240
WIRE 192 -48 16 -48
WIRE -64 -16 -480 -16
WIRE 192 0 192 -48
WIRE 192 0 160 0
WIRE 272 0 192 0
WIRE 160 32 160 0
WIRE 272 32 272 0
WIRE 160 112 160 96
FLAG 64 -160 0
FLAG 160 112 0
FLAG 272 112 0
FLAG -480 -48 0
FLAG -480 64 0
SYMBOL voltage 64 -256 R0
WINDOW 123 0 0 Left 2
WINDOW 39 0 0 Left 2
SYMATTR InstName V1
SYMATTR Value 1
SYMBOL voltage -480 -144 R0
WINDOW 123 0 0 Left 2
WINDOW 39 0 0 Left 2
SYMATTR InstName V2
SYMATTR Value PULSE(0 1 2n 10p 10p 2n 4n)
SYMBOL res 256 16 R0
SYMATTR InstName R1
SYMATTR Value 100K
SYMBOL cap 144 32 R0
SYMATTR InstName C1
SYMATTR Value 100f
SYMBOL voltage -480 -32 R0
WINDOW 123 0 0 Left 2
WINDOW 39 0 0 Left 2
SYMATTR InstName V3
SYMATTR Value PULSE(0 1 1n 10p 10p 2n 4n)
SYMBOL nand -48 -48 R0
SYMATTR InstName X1
TEXT 256 -128 Left 2 !.tran 0 4n 0 1p
TEXT 256 -96 Left 2 !.include 90nm_bulk.txt
