Version 4
SHEET 1 880 680
WIRE 224 64 112 64
WIRE 256 64 256 16
WIRE 224 96 112 96
WIRE 384 96 288 96
WIRE 224 128 112 128
WIRE 224 240 112 240
WIRE 256 240 256 208
WIRE 224 272 112 272
WIRE 352 272 288 272
WIRE 384 272 384 96
WIRE 464 272 384 272
WIRE 496 272 496 224
WIRE 224 304 112 304
WIRE 352 304 352 272
WIRE 464 304 352 304
WIRE 608 304 528 304
WIRE 464 336 112 336
FLAG 608 304 out
IOPIN 608 304 Out
FLAG 256 16 vdd
IOPIN 256 16 In
FLAG 256 208 vdd
IOPIN 256 208 In
FLAG 496 224 vdd
IOPIN 496 224 In
FLAG 112 64 in0
IOPIN 112 64 In
FLAG 112 96 in1
IOPIN 112 96 In
FLAG 112 128 in2
IOPIN 112 128 In
FLAG 112 240 in3
IOPIN 112 240 In
FLAG 112 272 in4
IOPIN 112 272 In
FLAG 112 304 in5
IOPIN 112 304 In
FLAG 112 336 in6
IOPIN 112 336 In
SYMBOL or3 240 96 R0
SYMATTR InstName X1
SYMBOL or3 240 272 R0
SYMATTR InstName X2
SYMBOL or3 480 304 R0
SYMATTR InstName X4
