Version 4
SHEET 1 3780 680
WIRE 272 -176 -32 -176
WIRE -32 -96 -32 -176
WIRE -32 -96 -240 -96
WIRE -32 -16 -32 -96
WIRE -112 0 -672 0
WIRE 320 0 48 0
WIRE -112 32 -544 32
WIRE -240 64 -240 -96
WIRE -112 64 -240 64
WIRE 144 64 48 64
WIRE 144 112 144 64
WIRE 144 112 112 112
WIRE 192 112 144 112
WIRE 320 112 320 0
WIRE 320 112 288 112
WIRE 368 112 320 112
WIRE 112 128 112 112
WIRE 288 128 288 112
WIRE 192 144 192 112
WIRE 368 144 368 112
WIRE -544 208 -544 32
WIRE 112 224 112 192
WIRE 288 224 288 192
FLAG -672 80 0
FLAG 288 224 0
FLAG 368 224 0
FLAG 272 -96 0
FLAG 112 224 0
FLAG 192 224 0
FLAG -544 288 0
SYMBOL voltage -672 -16 R0
WINDOW 123 0 0 Left 2
WINDOW 39 0 0 Left 2
WINDOW 3 24 96 Invisible 2
SYMATTR InstName V2
SYMATTR Value PWL(0n 1 0.01n 1 1n 1 1.01n 1 2n 1 2.01n 1 3n 1 3.01n 1 4n 1 4.01n 0 5n 0 5.01n 1 6n 1 6.01n 0 7n 0 7.01n 1 8n 1 8.01n 0 9n 0 9.01n 0 10n 0 10.01n 0 11n 0 11.01n 0 12n 0 12.01n 1 13n 1 13.01n 0 14n 0 14.01n 0 15n 0 15.01n 0 16n 0 16.01n 0 17n 0 17.01n 1 18n 1 18.01n 1 19n 1 19.01n 0 20n 0 20.01n 0 21n 0 21.01n 0 22n 0 22.01n 0 23n 0 23.01n 1 24n 1)
SYMBOL cap 272 128 R0
SYMATTR InstName C2
SYMATTR Value 1f
SYMBOL res 352 128 R0
SYMATTR InstName R2
SYMATTR Value 100k
SYMBOL voltage 272 -192 R0
WINDOW 123 0 0 Left 2
WINDOW 39 0 0 Left 2
SYMATTR InstName V3
SYMATTR Value 1
SYMBOL Recognizer(110_001) -32 32 R0
SYMATTR InstName X1
SYMBOL cap 96 128 R0
SYMATTR InstName C1
SYMATTR Value 1f
SYMBOL res 176 128 R0
SYMATTR InstName R1
SYMATTR Value 100k
SYMBOL voltage -544 192 R0
WINDOW 123 0 0 Left 2
WINDOW 39 0 0 Left 2
SYMATTR InstName x2
SYMATTR Value PULSE(0 1 1n 10p 10p 100p 1n)
TEXT -568 -160 Left 2 !.include 90nm_bulk.txt
TEXT -568 -192 Left 2 !.tran 0 24n 0 1p
