Version 4
SHEET 1 5716 5924
WIRE 2208 2944 2160 2944
WIRE 2208 2976 2160 2976
WIRE 2208 3008 2160 3008
WIRE 1328 3024 816 3024
WIRE 1520 3024 1328 3024
WIRE 1888 3024 1680 3024
WIRE 1888 3040 1888 3024
WIRE 2080 3040 1888 3040
WIRE 2208 3040 2160 3040
WIRE 1328 3056 992 3056
WIRE 1520 3056 1328 3056
WIRE 2080 3072 1888 3072
WIRE 2208 3072 2160 3072
WIRE 1328 3088 1168 3088
WIRE 1520 3088 1328 3088
WIRE 1888 3088 1888 3072
WIRE 1888 3088 1680 3088
WIRE 992 3104 992 3056
WIRE 1168 3168 1168 3088
FLAG 992 3184 0
FLAG 816 3104 0
FLAG 1168 3248 0
FLAG 2080 2976 clk
FLAG 2080 2944 in
FLAG 1328 3024 in
FLAG 1328 3056 clk
FLAG 1328 3088 enable?
FLAG 2080 3008 enable?
SYMBOL voltage 992 3088 R0
WINDOW 123 0 0 Left 2
WINDOW 39 0 0 Left 2
SYMATTR InstName V1
SYMATTR Value PULSE(0 5 1.1ms 10n 10n 0.1m 1m)
SYMBOL voltage 1168 3152 R0
WINDOW 123 0 0 Left 2
WINDOW 39 0 0 Left 2
SYMATTR InstName V3
SYMATTR Value PULSE(5 0 24m 0 0 5m 30m 1)
SYMBOL Digital\\dview5 2096 3088 R0
SYMATTR InstName U74
SYMBOL voltage 816 3008 R0
WINDOW 123 0 0 Left 2
WINDOW 39 0 0 Left 2
WINDOW 3 24 96 Invisible 2
SYMATTR Value PWL(0m`` 5 0.01m 5 1m 5 1.01m 5 2m 5 2.01m 5 3m 5 3.01m 5 4m 5 4.01m 0 5m 0 5.01m 5 6m 5 6.01m 0 7m 0 7.01m 5 8m 5 8.01m 0 9m 0 9.01m 0 10m 0 10.01m 0 11m 0 11.01m 0 12m 0 12.01m 5 13m 5 13.01m 0 14m 0 14.01m 0 15m 0 15.01m 0 16m 0 16.01m 0 17m 0 17.01m 5 18m 5 18.01m 5 19m 5 19.01m 0 20m 0 20.01m 0 21m 0 21.01m 0 22m 0 22.01m 0 23m 0 23.01m 5 24m 5)
SYMATTR InstName V4
SYMBOL Recognizer 1600 3056 R0
SYMATTR InstName X1
TEXT 1672 2928 Left 2 !.tran 0 30m 0 1u
TEXT 1672 2864 Left 2 !.lib 74hct.lib
TEXT 1672 2896 Left 2 !.lib dview.lib
