Version 4
SHEET 1 1136 680
WIRE 352 128 16 128
WIRE 464 128 352 128
WIRE 688 128 464 128
WIRE 688 208 688 128
WIRE 464 224 464 128
WIRE 624 224 512 224
WIRE 624 256 512 256
WIRE 352 272 352 128
WIRE 432 272 352 272
WIRE 816 272 768 272
WIRE 624 288 512 288
WIRE 624 320 512 320
WIRE 816 384 816 272
WIRE 816 384 768 384
WIRE 880 384 816 384
WIRE 448 400 448 304
WIRE 448 400 64 400
WIRE 768 416 768 384
WIRE 880 416 880 384
WIRE 768 496 768 480
WIRE 480 512 480 320
WIRE 480 512 64 512
FLAG 16 208 0
FLAG 64 480 0
FLAG 64 592 0
FLAG 768 496 0
FLAG 880 496 0
SYMBOL voltage 16 112 R0
WINDOW 123 0 0 Left 2
WINDOW 39 0 0 Left 2
SYMATTR InstName V1
SYMATTR Value 1
SYMBOL voltage 64 384 R0
WINDOW 123 0 0 Left 2
WINDOW 39 0 0 Left 2
SYMATTR InstName V2
SYMATTR Value PULSE(0 1 2n 10p 10p 2n 4n)
SYMBOL voltage 64 496 R0
WINDOW 123 0 0 Left 2
WINDOW 39 0 0 Left 2
SYMATTR InstName V3
SYMATTR Value PULSE(0 1 1n 10p 10p 1n 2n)
SYMBOL res 864 400 R0
SYMATTR InstName R1
SYMATTR Value 100K
SYMBOL cap 752 416 R0
SYMATTR InstName C1
SYMATTR Value 100f
SYMBOL demultiplexor 480 272 R0
SYMATTR InstName X1
SYMBOL and4 672 272 R0
SYMATTR InstName X2
TEXT 840 152 Left 2 !.include 90nm_bulk.txt
TEXT 840 120 Left 2 !.tran 0 8n 0 1p
