Version 4
SHEET 1 1324 792
WIRE 592 -272 592 -320
WIRE 144 -128 -32 -128
WIRE 416 -128 336 -128
WIRE -32 16 -32 -128
WIRE -32 16 -432 16
WIRE 240 32 240 16
WIRE 240 32 176 32
WIRE 416 128 416 -128
WIRE 1040 128 416 128
WIRE -64 144 -432 144
WIRE 816 144 480 144
WIRE 608 160 496 160
WIRE 816 160 816 144
WIRE 1040 160 1040 128
WIRE -64 208 -64 144
WIRE 144 208 -64 208
WIRE 480 208 480 144
WIRE 480 208 336 208
WIRE -32 272 -432 272
WIRE 240 384 240 352
WIRE 240 384 176 384
WIRE -32 560 -32 272
WIRE 144 560 -32 560
WIRE 496 560 496 160
WIRE 496 560 336 560
WIRE -352 576 -352 544
WIRE -240 576 -240 544
WIRE 240 720 240 704
WIRE 240 720 176 720
FLAG -432 224 0
FLAG -432 352 0
FLAG -432 96 0
FLAG 592 -192 0
FLAG -240 656 0
FLAG 144 240 CLK
FLAG 240 128 vdd
FLAG 240 -208 vdd
FLAG 240 480 vdd
FLAG 64 720 RST
FLAG -240 544 RST
FLAG 64 384 RST
FLAG 64 32 RST
FLAG 144 592 CLK
FLAG 144 -96 CLK
FLAG 592 -320 CLK
FLAG -352 656 0
FLAG -352 544 vdd
SYMBOL 74HCT\\74hct04 880 208 R90
SYMATTR InstName U2
SYMBOL 74HCT\\74hct04 1104 208 R90
SYMATTR InstName U3
SYMBOL 74HCT\\74hct04 672 208 R90
SYMATTR InstName U4
SYMBOL voltage -240 560 R0
WINDOW 123 0 0 Left 2
WINDOW 39 0 0 Left 2
SYMATTR InstName x7
SYMATTR Value 0
SYMBOL 74HCT\\74hct74 240 -208 R0
SYMATTR InstName U1
SYMBOL 74HCT\\74hct04 112 320 R0
SYMATTR InstName U7
SYMBOL 74HCT\\74hct04 112 -32 R0
SYMATTR InstName U8
SYMBOL 74HCT\\74hct04 112 656 R0
SYMATTR InstName U9
SYMBOL 74HCT\\74hct74 240 480 R0
SYMATTR InstName U6
SYMBOL 74HCT\\74hct74 240 128 R0
SYMATTR InstName U5
SYMBOL voltage -352 560 R0
WINDOW 123 0 0 Left 2
WINDOW 39 0 0 Left 2
SYMATTR InstName V1
SYMATTR Value 5
SYMBOL voltage 592 -288 R0
WINDOW 123 0 0 Left 2
WINDOW 39 0 0 Left 2
SYMATTR InstName x1
SYMATTR Value PULSE(0 5 0 10n 10n 1m 2m)
SYMBOL voltage -432 0 R0
WINDOW 123 0 0 Left 2
WINDOW 39 0 0 Left 2
SYMATTR InstName x2
SYMATTR Value PULSE(0 5 1m 10n 10n 2m 4m)
SYMBOL voltage -432 128 R0
WINDOW 123 0 0 Left 2
WINDOW 39 0 0 Left 2
SYMATTR InstName x3
SYMATTR Value PULSE(0 5 1m 10n 10n 2m 4m)
SYMBOL voltage -432 256 R0
WINDOW 123 0 0 Left 2
WINDOW 39 0 0 Left 2
SYMATTR InstName x4
SYMATTR Value PULSE(0 5 1m 10n 10n 2m 4m)
TEXT 792 -16 Left 2 !.lib 74hct.lib
TEXT 792 16 Left 2 !.lib dview.lib
TEXT 792 48 Left 2 !.tran 0 20m 0 1u
