Version 4
SHEET 1 1736 1532
WIRE -64 -176 -64 -224
WIRE -272 -48 -288 -48
WIRE -368 32 -464 32
WIRE -64 32 -176 32
WIRE -368 64 -464 64
WIRE -272 176 -352 176
WIRE -272 256 -288 256
WIRE -368 336 -464 336
WIRE -64 336 -176 336
WIRE -368 368 -464 368
WIRE -272 480 -352 480
WIRE -272 560 -288 560
WIRE -368 640 -464 640
WIRE -64 640 -176 640
WIRE -368 672 -464 672
WIRE -272 784 -352 784
FLAG -64 -96 0
FLAG -464 64 CLK
IOPIN -464 64 In
FLAG -64 -224 preset
FLAG -288 -48 preset
FLAG -64 32 S0_
IOPIN -64 32 Out
FLAG -464 480 RST
IOPIN -464 480 In
FLAG -464 368 CLK
IOPIN -464 368 In
FLAG -64 336 S1_
IOPIN -64 336 Out
FLAG -288 256 preset
FLAG -464 672 CLK
IOPIN -464 672 In
FLAG -64 640 S2_
IOPIN -64 640 Out
FLAG -288 560 preset
FLAG -464 176 RST
IOPIN -464 176 In
FLAG -464 784 RST
IOPIN -464 784 In
FLAG -464 32 S0
IOPIN -464 32 In
FLAG -464 336 S1
IOPIN -464 336 In
FLAG -464 640 S2
IOPIN -464 640 In
SYMBOL 74HCT\\74hct74 -272 -48 R0
SYMATTR InstName U5
SYMBOL voltage -64 -192 R0
WINDOW 123 0 0 Left 2
WINDOW 39 0 0 Left 2
SYMATTR InstName x4
SYMATTR Value 5
SYMBOL 74HCT\\74hct74 -272 256 R0
SYMATTR InstName U1
SYMBOL 74HCT\\74hct74 -272 560 R0
SYMATTR InstName U2
SYMBOL 74HCT\\74hct04 -416 416 R0
SYMATTR InstName U6
SYMBOL 74HCT\\74hct04 -416 112 R0
SYMATTR InstName U3
SYMBOL 74HCT\\74hct04 -416 720 R0
SYMATTR InstName U4
