Version 4
SHEET 1 880 680
WIRE 160 304 0 304
WIRE 320 304 160 304
WIRE -160 464 -224 464
WIRE 320 480 320 304
WIRE 304 496 128 496
WIRE 496 496 368 496
WIRE -160 512 -224 512
WIRE -160 560 -224 560
FLAG 496 496 out
IOPIN 496 496 Out
FLAG 160 304 vdd
IOPIN 160 304 In
FLAG -224 464 in1
IOPIN -224 464 In
FLAG -224 512 in2
IOPIN -224 512 In
FLAG -224 560 in3
IOPIN -224 560 In
SYMBOL inverter 320 496 R0
WINDOW 0 0 0 Left 2
SYMATTR InstName NOT1
SYMBOL nand3 0 512 R0
SYMATTR InstName X1
