Version 4
SHEET 1 1080 680
WIRE 496 -80 96 -80
WIRE 624 -64 624 -96
WIRE 96 -32 96 -80
WIRE 496 80 496 -80
WIRE 400 160 256 160
WIRE 800 160 592 160
WIRE 400 192 368 192
WIRE 672 224 592 224
WIRE 672 240 672 224
WIRE 496 320 496 304
WIRE 368 368 368 192
WIRE 256 432 256 160
FLAG 256 512 0
FLAG 368 448 0
FLAG 624 16 0
FLAG 624 -96 vdd
IOPIN 624 -96 In
FLAG 496 320 vdd
IOPIN 496 320 In
FLAG 96 48 0
SYMBOL voltage 256 416 R0
WINDOW 123 0 0 Left 2
WINDOW 39 0 0 Left 2
SYMATTR InstName x1
SYMATTR Value PULSE(0 5 1m 10n 10n 2m 4m)
SYMBOL voltage 368 352 R0
WINDOW 123 0 0 Left 2
WINDOW 39 0 0 Left 2
SYMATTR InstName x2
SYMATTR Value PULSE(0 5 0 10n 10n 1m 2m)
SYMBOL 74HCT\\74hct04 864 208 R90
SYMATTR InstName U2
SYMBOL 74HCT\\74hct74 496 80 R0
SYMATTR InstName U1
SYMBOL 74HCT\\74hct04 736 288 R90
SYMATTR InstName U3
SYMBOL voltage 624 -80 R0
WINDOW 123 0 0 Left 2
WINDOW 39 0 0 Left 2
SYMATTR InstName x3
SYMATTR Value 5
SYMBOL voltage 96 -48 R0
WINDOW 123 0 0 Left 2
WINDOW 39 0 0 Left 2
SYMATTR InstName x4
SYMATTR Value 5
TEXT 872 392 Left 2 !.tran 0 20m 0 1u
TEXT 872 344 Left 2 !.lib 74hct.lib
TEXT 872 368 Left 2 !.lib dview.lib
