Version 4
SHEET 1 1376 680
WIRE 1008 80 1008 48
WIRE 288 112 288 64
WIRE 272 128 240 128
WIRE 352 128 336 128
WIRE 240 208 240 128
WIRE 816 208 816 128
WIRE 464 224 464 176
WIRE 752 224 512 224
WIRE 752 256 512 256
WIRE 352 272 352 128
WIRE 432 272 352 272
WIRE 944 272 896 272
WIRE 752 288 512 288
WIRE 752 320 512 320
WIRE 320 384 320 336
WIRE 944 384 944 272
WIRE 944 384 896 384
WIRE 1008 384 944 384
WIRE 304 400 64 400
WIRE 448 400 448 304
WIRE 448 400 368 400
WIRE 896 416 896 384
WIRE 1008 416 1008 384
WIRE 896 496 896 480
WIRE 320 528 320 480
WIRE 304 544 64 544
WIRE 480 544 480 320
WIRE 480 544 368 544
FLAG 1008 160 0
FLAG 64 480 0
FLAG 64 624 0
FLAG 896 496 0
FLAG 1008 496 0
FLAG 1008 48 vdd
FLAG 320 336 vdd
FLAG 320 480 vdd
FLAG 464 176 vdd
FLAG 816 128 vdd
FLAG 240 208 0
FLAG 288 64 vdd
SYMBOL voltage 1008 64 R0
WINDOW 123 0 0 Left 2
WINDOW 39 0 0 Left 2
SYMATTR InstName V1
SYMATTR Value 1
SYMBOL voltage 64 384 R0
WINDOW 123 0 0 Left 2
WINDOW 39 0 0 Left 2
SYMATTR InstName V2
SYMATTR Value PULSE(0 1 2n 10p 10p 2n 4n)
SYMBOL voltage 64 528 R0
WINDOW 123 0 0 Left 2
WINDOW 39 0 0 Left 2
SYMATTR InstName V3
SYMATTR Value PULSE(0 1 1n 10p 10p 1n 2n)
SYMBOL res 992 400 R0
SYMATTR InstName R1
SYMATTR Value 100K
SYMBOL cap 880 416 R0
SYMATTR InstName C1
SYMATTR Value 100f
SYMBOL and4 800 272 R0
SYMATTR InstName X2
SYMBOL demux4 480 272 R0
SYMATTR InstName X3
SYMBOL inverter 320 400 R0
SYMATTR InstName X4
SYMBOL inverter 320 544 R0
SYMATTR InstName X5
SYMBOL inverter 288 128 R0
SYMATTR InstName X6
TEXT 1080 96 Left 2 !.include 90nm_bulk.txt
TEXT 1088 56 Left 2 !.tran 0 8n 0 1p
