Version 4
SHEET 1 880 680
WIRE -4432 -2016 -4544 -2016
WIRE -3920 -2016 -4432 -2016
WIRE -4448 -1984 -4544 -1984
WIRE -3920 -1984 -4448 -1984
WIRE -4464 -1952 -4544 -1952
WIRE -3920 -1952 -4464 -1952
WIRE -3824 -1952 -3824 -2032
WIRE -4480 -1920 -4544 -1920
WIRE -3920 -1920 -4480 -1920
WIRE -3616 -1904 -3616 -1968
WIRE -3632 -1888 -3728 -1888
WIRE -2800 -1888 -3568 -1888
WIRE -4016 -1856 -4064 -1856
WIRE -3920 -1856 -4016 -1856
WIRE -4064 -1824 -4064 -1856
WIRE -4016 -1824 -4016 -1856
WIRE -3920 -1824 -4016 -1824
WIRE -4016 -1792 -4016 -1824
WIRE -3920 -1792 -4016 -1792
WIRE -1888 -1792 -2208 -1792
WIRE -1808 -1792 -1888 -1792
WIRE -1760 -1776 -1760 -1840
WIRE -3920 -1760 -4016 -1760
WIRE -1808 -1760 -2208 -1760
WIRE -2864 -1744 -3440 -1744
WIRE -1152 -1744 -1728 -1744
WIRE -1888 -1728 -1888 -1792
WIRE -1808 -1728 -1888 -1728
WIRE -1808 -1696 -2432 -1696
WIRE -2800 -1648 -2800 -1888
WIRE -1776 -1648 -1776 -1696
WIRE -1776 -1648 -2800 -1648
WIRE -2864 -1616 -2864 -1744
WIRE -1744 -1616 -1744 -1712
WIRE -1744 -1616 -2864 -1616
WIRE -1888 -1520 -2208 -1520
WIRE -1808 -1520 -1888 -1520
WIRE -1760 -1504 -1760 -1536
WIRE -1808 -1488 -2208 -1488
WIRE -1152 -1472 -1728 -1472
WIRE -1888 -1456 -1888 -1520
WIRE -1808 -1456 -1888 -1456
WIRE -4432 -1440 -4432 -2016
WIRE -3920 -1440 -4432 -1440
WIRE -1808 -1424 -2352 -1424
WIRE -4448 -1408 -4448 -1984
WIRE -3920 -1408 -4448 -1408
WIRE -4464 -1376 -4464 -1952
WIRE -3920 -1376 -4464 -1376
WIRE -3824 -1376 -3824 -1424
WIRE -2800 -1376 -2800 -1648
WIRE -1776 -1376 -1776 -1424
WIRE -1776 -1376 -2800 -1376
WIRE -4480 -1344 -4480 -1920
WIRE -3920 -1344 -4480 -1344
WIRE -2864 -1344 -2864 -1616
WIRE -1744 -1344 -1744 -1440
WIRE -1744 -1344 -2864 -1344
WIRE -3600 -1328 -3600 -1392
WIRE -3616 -1312 -3728 -1312
WIRE -3440 -1312 -3440 -1744
WIRE -3440 -1312 -3552 -1312
WIRE -4016 -1280 -4112 -1280
WIRE -3920 -1280 -4016 -1280
WIRE -4112 -1248 -4112 -1280
WIRE -3920 -1248 -4048 -1248
WIRE -1888 -1248 -2208 -1248
WIRE -1808 -1248 -1888 -1248
WIRE -1760 -1232 -1760 -1264
WIRE -4016 -1216 -4016 -1280
WIRE -3920 -1216 -4016 -1216
WIRE -1808 -1216 -2192 -1216
WIRE -1152 -1200 -1728 -1200
WIRE -4048 -1184 -4048 -1248
WIRE -4048 -1184 -4064 -1184
WIRE -3920 -1184 -4048 -1184
WIRE -1888 -1184 -1888 -1248
WIRE -1808 -1184 -1888 -1184
WIRE -1808 -1152 -2272 -1152
WIRE -2800 -1104 -2800 -1376
WIRE -1776 -1104 -1776 -1152
WIRE -1776 -1104 -2800 -1104
WIRE -2864 -1072 -2864 -1344
WIRE -1744 -1072 -1744 -1168
WIRE -1744 -1072 -2864 -1072
WIRE -1888 -960 -2192 -960
WIRE -1808 -960 -1888 -960
WIRE -1760 -944 -1760 -976
WIRE -1808 -928 -2192 -928
WIRE -1152 -912 -1728 -912
WIRE -1888 -896 -1888 -960
WIRE -1808 -896 -1888 -896
WIRE -1808 -864 -2192 -864
WIRE -2800 -816 -2800 -1104
WIRE -1776 -816 -1776 -864
WIRE -1776 -816 -2800 -816
WIRE -2864 -784 -2864 -1072
WIRE -1744 -784 -1744 -880
WIRE -1744 -784 -2864 -784
WIRE -4432 -688 -4432 -1440
WIRE -3952 -688 -4432 -688
WIRE -3904 -688 -3904 -816
WIRE -2432 -688 -2432 -1696
WIRE -2432 -688 -3856 -688
WIRE -4448 -672 -4448 -1408
WIRE -3952 -672 -4448 -672
WIRE -4464 -656 -4464 -1376
WIRE -3952 -656 -4464 -656
WIRE -2352 -656 -2352 -1424
WIRE -2352 -656 -3856 -656
WIRE -4480 -640 -4480 -1344
WIRE -3952 -640 -4480 -640
WIRE -2272 -624 -2272 -1152
WIRE -2272 -624 -3856 -624
WIRE -3952 -608 -4080 -608
WIRE -3952 -592 -4048 -592
WIRE -2192 -592 -2192 -864
WIRE -2192 -592 -3856 -592
WIRE -3952 -576 -4016 -576
WIRE -4016 -560 -4016 -576
WIRE -4016 -560 -4096 -560
WIRE -3952 -560 -4016 -560
WIRE -4080 -528 -4080 -608
WIRE -4080 -528 -4144 -528
WIRE -4048 -528 -4048 -592
WIRE -4048 -528 -4080 -528
WIRE -3952 -528 -4048 -528
WIRE -3728 -528 -3856 -528
FLAG -4064 -1824 0
FLAG -4112 -1248 0
FLAG -4144 -528 0
FLAG -4544 -1920 x0
IOPIN -4544 -1920 In
FLAG -4544 -1952 x1
IOPIN -4544 -1952 In
FLAG -4544 -1984 x2
IOPIN -4544 -1984 In
FLAG -4544 -2016 x3
IOPIN -4544 -2016 In
FLAG -3824 -2032 vdd
IOPIN -3824 -2032 In
FLAG -4064 -1184 vdd
IOPIN -4064 -1184 In
FLAG -3904 -816 vdd
IOPIN -3904 -816 In
FLAG -4016 -1760 vdd
IOPIN -4016 -1760 In
FLAG -1152 -1744 y3
IOPIN -1152 -1744 Out
FLAG -1152 -1472 y2
IOPIN -1152 -1472 Out
FLAG -1152 -1200 y1
IOPIN -1152 -1200 Out
FLAG -1152 -912 y0
IOPIN -1152 -912 Out
FLAG -3824 -1424 vdd
IOPIN -3824 -1424 In
FLAG -4096 -560 vdd
IOPIN -4096 -560 In
FLAG -2192 -960 vdd
IOPIN -2192 -960 In
FLAG -2208 -1248 0
FLAG -2208 -1520 0
FLAG -2208 -1792 0
FLAG -2192 -1216 vdd
IOPIN -2192 -1216 In
FLAG -2192 -928 0
FLAG -2208 -1760 0
FLAG -2208 -1488 0
FLAG -3600 -1392 vdd
IOPIN -3600 -1392 In
FLAG -3616 -1968 vdd
IOPIN -3616 -1968 In
FLAG -1760 -1840 vdd
IOPIN -1760 -1840 In
FLAG -1760 -1536 vdd
IOPIN -1760 -1536 In
FLAG -1760 -1264 vdd
IOPIN -1760 -1264 In
FLAG -1760 -976 vdd
IOPIN -1760 -976 In
SYMBOL comparator -3856 -1888 R0
SYMATTR InstName cmp1
SYMBOL comparator -3856 -1312 R0
SYMATTR InstName cmp2
SYMBOL 4bitAdder -3904 -624 R0
SYMATTR InstName X16
SYMBOL mux4 -1760 -1744 R0
SYMATTR InstName X1
SYMBOL mux4 -1760 -1472 R0
SYMATTR InstName X2
SYMBOL mux4 -1760 -1200 R0
SYMATTR InstName X3
SYMBOL mux4 -1760 -912 R0
SYMATTR InstName X4
SYMBOL inverter -3616 -1888 R0
SYMATTR InstName X5
SYMBOL inverter -3600 -1312 R0
SYMATTR InstName X6
TEXT -3944 -1728 Left 5 ;1
TEXT -3952 -1152 Left 5 ;5
TEXT -3784 -2088 Left 5 ;is x != 0
TEXT -3784 -1504 Left 5 ;is x > 4
