Version 4
SHEET 1 4228 1348
WIRE -112 -208 -112 -256
WIRE -128 -192 -512 -192
WIRE 32 -192 -64 -192
WIRE -112 -80 -112 -128
WIRE -128 -64 -512 -64
WIRE 16 -64 -64 -64
WIRE 192 -48 192 -64
WIRE 192 -48 144 -48
WIRE 240 -48 192 -48
WIRE 240 16 240 -48
WIRE -112 48 -112 0
WIRE -128 64 -512 64
WIRE 0 64 -64 64
WIRE -112 176 -112 128
WIRE -128 192 -512 192
WIRE -16 192 -64 192
WIRE 32 224 32 -192
WIRE 112 224 32 224
WIRE 144 224 144 -48
WIRE 912 224 176 224
WIRE 16 240 16 -64
WIRE 112 240 16 240
WIRE 704 240 176 240
WIRE 0 256 0 64
WIRE 112 256 0 256
WIRE 480 256 176 256
WIRE -16 272 -16 192
WIRE 112 272 -16 272
WIRE 272 272 176 272
WIRE 272 320 272 272
WIRE 480 320 480 256
WIRE 704 320 704 240
WIRE 912 320 912 224
WIRE 320 336 288 336
WIRE 528 336 496 336
WIRE 752 336 720 336
WIRE 960 336 928 336
WIRE 272 464 272 384
WIRE 272 464 224 464
WIRE 336 464 272 464
WIRE 480 464 480 384
WIRE 480 464 432 464
WIRE 544 464 480 464
WIRE 704 464 704 384
WIRE 704 464 656 464
WIRE 768 464 704 464
WIRE 912 464 912 384
WIRE 912 464 864 464
WIRE 976 464 912 464
WIRE 224 480 224 464
WIRE 336 480 336 464
WIRE 544 480 544 464
WIRE 768 480 768 464
WIRE 976 480 976 464
WIRE 224 496 224 480
WIRE 432 496 432 464
WIRE 656 496 656 464
WIRE 864 496 864 464
WIRE 224 560 224 544
FLAG -512 144 0
FLAG -512 272 0
FLAG -512 16 0
FLAG -512 -112 0
FLAG 224 560 0
FLAG 336 560 0
FLAG 432 560 0
FLAG 544 560 0
FLAG 656 560 0
FLAG 768 560 0
FLAG 864 560 0
FLAG 976 560 0
FLAG 240 96 0
FLAG 192 -64 vdd
FLAG -112 -256 vdd
FLAG -112 -128 vdd
FLAG -112 0 vdd
FLAG -112 128 vdd
FLAG 320 336 vdd
FLAG 528 336 vdd
FLAG 752 336 vdd
FLAG 960 336 vdd
SYMBOL voltage -512 176 R0
WINDOW 123 0 0 Left 2
WINDOW 39 0 0 Left 2
SYMATTR InstName x0
SYMATTR Value PULSE(0 1 8n 10p 10p 8n 16n)
SYMBOL voltage -512 48 R0
WINDOW 123 0 0 Left 2
WINDOW 39 0 0 Left 2
SYMATTR InstName x1
SYMATTR Value PULSE(0 1 4n 10p 10p 4n 8n)
SYMBOL voltage -512 -80 R0
WINDOW 123 0 0 Left 2
WINDOW 39 0 0 Left 2
SYMATTR InstName x2
SYMATTR Value PULSE(0 1 2n 10p 10p 2n 4n)
SYMBOL voltage -512 -208 R0
WINDOW 123 0 0 Left 2
WINDOW 39 0 0 Left 2
SYMATTR InstName x3
SYMATTR Value PULSE(0 1 1n 10p 10p 1n 2n)
SYMBOL voltage 240 0 R0
WINDOW 123 0 0 Left 2
WINDOW 39 0 0 Left 2
SYMATTR InstName vdd
SYMATTR Value 1
SYMBOL res 320 464 R0
SYMATTR InstName R2
SYMATTR Value 3k
SYMBOL cap 208 480 R0
SYMATTR InstName C2
SYMATTR Value 1µ
SYMBOL res 528 464 R0
SYMATTR InstName R4
SYMATTR Value 3k
SYMBOL cap 416 496 R0
SYMATTR InstName C4
SYMATTR Value 1µ
SYMBOL res 752 464 R0
SYMATTR InstName R5
SYMATTR Value 3k
SYMBOL cap 640 496 R0
SYMATTR InstName C5
SYMATTR Value 1µ
SYMBOL res 960 464 R0
SYMATTR InstName R6
SYMATTR Value 3k
SYMBOL cap 848 496 R0
SYMATTR InstName C6
SYMATTR Value 1µ
SYMBOL Formula2 144 240 R0
SYMATTR InstName X4
SYMBOL inverter -112 192 R0
SYMATTR InstName X5
SYMBOL inverter -112 64 R0
SYMATTR InstName X6
SYMBOL inverter -112 -64 R0
SYMATTR InstName X7
SYMBOL inverter -112 -192 R0
SYMATTR InstName X8
SYMBOL inverter 272 336 R90
SYMATTR InstName X9
SYMBOL inverter 480 336 R90
SYMATTR InstName X10
SYMBOL inverter 704 336 R90
SYMATTR InstName X11
SYMBOL inverter 912 336 R90
SYMATTR InstName X12
TEXT 448 16 Left 2 !.include 90nm_bulk.txt
TEXT 448 -16 Left 2 !.tran 0 16n 15n
TEXT 256 624 Left 5 ;y0
TEXT 472 624 Left 5 ;y1
TEXT 696 624 Left 5 ;y2
TEXT 912 624 Left 5 ;y3
