Version 4
SHEET 1 880 680
WIRE 256 32 256 16
WIRE 256 32 160 32
WIRE 352 32 256 32
WIRE 96 96 48 96
WIRE 160 96 160 32
WIRE 352 96 352 32
WIRE 96 112 96 96
WIRE 144 112 96 112
WIRE 336 112 272 112
WIRE 272 128 272 112
WIRE 272 128 224 128
WIRE 576 128 416 128
WIRE 144 144 96 144
WIRE 336 144 272 144
WIRE 96 160 96 144
WIRE 96 160 48 160
WIRE 272 224 272 144
WIRE 272 224 48 224
FLAG 48 96 in1
IOPIN 48 96 In
FLAG 48 160 in2
IOPIN 48 160 In
FLAG 576 128 out
IOPIN 576 128 Out
FLAG 256 16 vdd
IOPIN 256 16 In
FLAG 48 224 in3
IOPIN 48 224 In
SYMBOL or 160 128 R0
SYMATTR InstName X2
SYMBOL or 352 128 R0
SYMATTR InstName X3
