Version 4
SHEET 1 880 680
WIRE -96 -48 -96 -96
WIRE -128 -16 -320 -16
WIRE 368 -16 -64 -16
WIRE -320 0 -320 -16
WIRE -128 16 -256 16
WIRE 80 16 -64 16
WIRE -256 48 -256 16
WIRE 80 224 80 16
WIRE 80 224 32 224
WIRE 144 224 80 224
WIRE 368 224 368 -16
WIRE 368 224 320 224
WIRE 432 224 368 224
WIRE 144 240 144 224
WIRE 432 240 432 224
WIRE 32 256 32 224
WIRE 320 256 320 224
FLAG -320 80 0
FLAG 32 320 0
FLAG 144 320 0
FLAG 320 320 0
FLAG 432 320 0
FLAG -96 -96 vdd
FLAG -256 128 0
SYMBOL voltage -320 -16 R0
WINDOW 123 0 0 Left 2
WINDOW 39 0 0 Left 2
WINDOW 3 -169 -33 Left 2
SYMATTR InstName in1
SYMATTR Value PULSE(0 1 1n 10p 10p 2n 4n)
SYMBOL res 128 224 R0
SYMATTR InstName R1
SYMATTR Value 100k
SYMBOL cap 16 256 R0
SYMATTR InstName C1
SYMATTR Value 1f
SYMBOL res 416 224 R0
SYMATTR InstName R2
SYMATTR Value 100k
SYMBOL cap 304 256 R0
SYMATTR InstName C2
SYMATTR Value 1f
SYMBOL rs -96 0 R0
SYMATTR InstName X3
SYMBOL voltage -256 32 R0
WINDOW 123 0 0 Left 2
WINDOW 39 0 0 Left 2
WINDOW 3 45 109 Left 2
SYMATTR InstName in2
SYMATTR Value PULSE(0 1 2n 10p 10p 2n 4n)
TEXT 264 -248 Left 2 !.include 90nm_bulk.txt
TEXT 264 -280 Left 2 !.tran 0 8n 0 1p
